Circuit: * D:\aletorres\Documentos\git\Facultad\TC2\JupyterNotebook\trabajo_semanal3_torres\pasabjos.asc

.OP point found by inspection.
Ignoring empty pin current: Ix(u1:1)
Ignoring empty pin current: Ix(u1:2)
Ignoring empty pin current: Ix(u1:1)
Ignoring empty pin current: Ix(u1:2)

Date: Mon Aug 21 21:47:42 2023
Total elapsed time: 0.033 seconds.

tnom = 27
temp = 27
method = trap
totiter = 0
traniter = 0
tranpoints = 0
accept = 0
rejected = 0
matrix size = 5
fillins = 1
solver = Normal
Avg thread counts: 16.0/0.0/0.0/16.0
Matrix Compiler1:      11 opcodes
Matrix Compiler2:      27 opcodes
