Circuit: * C:\users\atorres\Mis Documentos\Facultad\TC2\JupyterNotebook\trabajo_semanal3_torres\pasabjos.asc

Ignoring empty pin current: Ix(u1:1)
Ignoring empty pin current: Ix(u1:2)

Date: Sat May 27 17:45:18 2023
Total elapsed time: 0.036 seconds.

tnom = 27
temp = 27
method = trap
totiter = 0
traniter = 0
tranpoints = 0
accept = 0
rejected = 0
matrix size = 5
fillins = 1
solver = Normal

