Circuit: * C:\users\aletorres\Documents\Facultad\TC2\JupyterNotebook\trabajo_semanal2_torres\AK_MOS_1.asc

.OP point found by inspection.
Ignoring empty pin current: Ix(u1:1)
Ignoring empty pin current: Ix(u1:2)
Ignoring empty pin current: Ix(u2:1)
Ignoring empty pin current: Ix(u2:2)
Ignoring empty pin current: Ix(u3:1)
Ignoring empty pin current: Ix(u3:2)
Ignoring empty pin current: Ix(u1:1)
Ignoring empty pin current: Ix(u1:2)
Ignoring empty pin current: Ix(u2:1)
Ignoring empty pin current: Ix(u2:2)
Ignoring empty pin current: Ix(u3:1)
Ignoring empty pin current: Ix(u3:2)
.step w0=1
.step w0=1.25893
.step w0=1.58489
.step w0=1.99526
.step w0=2.51189
.step w0=3.16228
.step w0=3.98107
.step w0=5.01187
.step w0=6.30957
.step w0=7.94328
.step w0=10
.step w0=12.5893
.step w0=15.8489
.step w0=19.9526
.step w0=25.1189
.step w0=31.6228
.step w0=39.8107
.step w0=50.1187
.step w0=63.0957
.step w0=79.4328
.step w0=100
.step w0=125.893
.step w0=158.489
.step w0=199.526
.step w0=251.189
.step w0=316.228
.step w0=398.107
.step w0=501.187
.step w0=630.957
.step w0=794.328
.step w0=1000
.step w0=1258.93
.step w0=1584.89
.step w0=1995.26
.step w0=2511.89
.step w0=3162.28
.step w0=3981.07
.step w0=5011.87
.step w0=6309.57
.step w0=7943.28
.step w0=10000

Date: Sun Jun  4 17:04:40 2023
Total elapsed time: 0.498 seconds.

tnom = 27
temp = 27
method = trap
totiter = 0
traniter = 0
tranpoints = 0
accept = 0
rejected = 0
matrix size = 8
fillins = 8
solver = Normal
Avg thread counts: 16.0/0.0/0.0/3.3
Matrix Compiler1:      41 opcodes
Matrix Compiler2:      56 opcodes
